Q12-NYISO-Network/Old formulation/SEP17 Noise_det/Det_battery_peak/GML_data/NYISO-data/case_nyiso.m
function mpc = case_nyiso
%   Power flow data for Energise NYISO network.
%   Please see CASEFORMAT for details on the case file format.


%   MATPOWER

%% MATPOWER Case Format : Version 2
mpc.version = '2';

%%-----  Power Flow Data  -----%%
%% system MVA base
mpc.baseMVA = 100;

%% bus data
%	bus_i	type	Pd	Qd	Gs	Bs	area	Vm	Va	baseKV	zone	Vmax	Vmin
mpc.bus = [1  1  0  0  0  0  1  1.0346 -1.7300 345  1  1.1000 0.9000;
	2  1  271.7200 -230.9300 0  0  1  1.0547 -3.3300 345  1  1.1000 0.9000;
	3  1  242.7900 -225.7800 0  0  1  1.0546 -3.2900 345  1  1.1000 0.9000;
	4  1  0  0  0  0  1  1.0421 -2.1400 345  1  1.1000 0.9000;
	5  1  19.6000 5.6000 0  0  1  1.0007 -4.5800 138  1  1.1000 0.9000;
	6  1  23.8000 4.4100 0  0  1  1.0144 -6.2100 69  1  1.1000 0.9000;
	7  1  35.6000 13.4400 0  0  1  0.9940 -5.2400 138  1  1.1000 0.9000;
	8  1  24.4000 2.3200 0  0  1  1.0015 -5.0600 138  1  1.1000 0.9000;
	9  1  28.0200 6.7200 0  0  1  0.9954 -5.1200 138  1  1.1000 0.9000;
	10  1  0  0  0  0  1  1.0004 -4.8200 138  1  1.1000 0.9000;
	11  1  0  0  0  0  1  0.9836 -3.6900 138  1  1.1000 0.9000;
	12  1  17.5800 3.8400 0  0  1  0.9921 -3.9100 138  1  1.1000 0.9000;
	13  1  37.7000 6.1000 0  0  1  0.9960 -5.0500 138  1  1.1000 0.9000;
	14  1  56.6900 79.5200 0  0  1  1  -4.5900 138  1  1.1000 0.9000;
	15  1  0  0  0  0  1  1.0059 -4.2000 138  1  1.1000 0.9000;
	16  1  0  0  0  0  1  1.0075 -4.0600 138  1  1.1000 0.9000;
	17  1  0  0  0  0  1  1  -4.6000 138  1  1.1000 0.9000;
	18  1  0  0  0  0  1  1.0066 -3.7700 138  1  1.1000 0.9000;
	19  1  32.4000 8.8000 0  0  1  1.0027 -4.0600 138  1  1.1000 0.9000;
	20  1  0  0  0  0  1  0.9999 -5.5700 138  1  1.1000 0.9000;
	21  1  0.8200 0.6100 0  0  1  0.9995 -8.9100 69  1  1.1000 0.9000;
	22  1  11.5600 3.2800 0  0  1  0.9926 -7.2200 69  1  1.1000 0.9000;
	23  1  0.1600 0.0800 0  0  1  0.9973 -6.6500 69  1  1.1000 0.9000;
	24  1  0  0  0  0  1  1  -6.2700 69  1  1.1000 0.9000;
	25  1  2.0400 1.4300 0  0  1  0.9904 -5.9700 69  1  1.1000 0.9000;
	26  1  0  0  0  0  1  1.0167 -6.0800 69  1  1.1000 0.9000;
	27  1  25.2800 -9.1000 0  0  1  1  -7.0100 69  1  1.1000 0.9000;
	28  2  24.2100 -8.0300 0  0  1  0.9950 -5.9800 69  1  1.1000 0.9000;
	29  1  9.0300 3.1800 0  0  1  0.9987 -6.3800 69  1  1.1000 0.9000;
	30  1  4.5700 1.3100 0  0  1  0.9972 -6.5500 69  1  1.1000 0.9000;
	31  1  0.7200 0.1200 0  0  1  0.9903 -5.5100 69  1  1.1000 0.9000;
	32  2  0.8200 0.3800 0  0  1  1.0398 -5.3800 69  1  1.1000 0.9000;
	33  1  27.0900 -10.4600 0  0  1  1  -6.8300 69  1  1.1000 0.9000;
	34  1  20.8200 4.3200 0  0  1  1.0030 -7.1900 69  1  1.1000 0.9000;
	35  1  24.3000 -7  0  0  1  1  -8.6700 69  1  1.1000 0.9000;
	36  1  0  0  0  0  1  1.0070 -7.5200 69  1  1.1000 0.9000;
	37  1  7.7600 -13.9400 0  0  1  0.9978 -6.8900 69  1  1.1000 0.9000;
	38  2  0  0  0  0  1  1.0459 -5.1700 69  1  1.1000 0.9000;
	39  1  18.6800 4.4800 0  0  1  1.0093 -6.0100 69  1  1.1000 0.9000;
	40  2  16.1500 -12.8500 0  0  1  1.0250 -5.3700 69  1  1.1000 0.9000;
	41  1  6.7200 1.6800 0  0  1  0.9956 -6.3400 69  1  1.1000 0.9000;
	42  1  20.0400 -2.3500 0  0  1  0.9992 -9.1400 69  1  1.1000 0.9000;
	43  1  3.0800 1.3200 0  0  1  0.9999 -6  69  1  1.1000 0.9000;
	44  1  0  0  0  0  1  1  -5.8300 69  1  1.1000 0.9000;
	45  2  0.1400 0.0800 0  0  1  1.0500 -5.2500 69  1  1.1000 0.9000;
	46  1  34.3200 5.4400 0  0  1  0.9973 -4.9200 138  1  1.1000 0.9000;
	47  1  25.8600 -4.6500 0  0  1  1  -7.6100 69  1  1.1000 0.9000;48  1  19.6800 -6.0700 0  0  1  1  -6.4700 69  1  1.1000 0.9000;49  1  21.4800 3.9000 0  0  1  0.9935 -7.2800 69  1  1.1000 0.9000;50  2  3.1700 6.4400 0  0  1  1.0106 -7.3600 34.5000 1  1.1000 0.9000;51  1  23.7000 6.1800 0  0  1  1.0146 -6.2000 69  1  1.1000 0.9000;52  2  0  0  0  0  1  1  4.2800 20  1  1.1000 0.9000;53  2  0  0  0  0  1  1  4.3100 20  1  1.1000 0.9000;54  1  9.4400 2.1600 0  0  1  1.0140 -6.2600 69  1  1.1000 0.9000;55  1  21.7700 -19.8300 0  0  1  1.0070 -7.5200 69  1  1.1000 0.9000;56  1  3.5500 1.8200 0  0  1  0.9902 -5.9800 69  1  1.1000 0.9000;57  1  0  0  0  0  1  1.0140 -6.2600 69  1  1.1000 0.9000;58  1  0  0  0  0  1  1.0250 -5.3700 69  1  1.1000 0.9000;59  1  0  0  0  0  1  1  -4.5600 138  1  1.1000 0.9000;60  1  32  9.6000 0  0  1  1  -5.4700 138  1  1.1000 0.9000;61  1  63.9900 46.8900 0  0  1  0.9788 -6.1100 138  1  1.1000 0.9000;62  1  12.5400 5.7600 0  0  1  1.0093 -5.9100 69  1  1.1000 0.9000;63  1  0  0  0  0  1  0.9990 -4.7900 138  1  1.1000 0.9000;64  1  0  0  0  0  1  1.0472 -2.6300 345  1  1.1000 0.9000;65  1  0  0  0  0  1  1.0347 -1.6300 345  1  1.1000 0.9000;66  1  0  0  0  0  1  1.0368 -1.6300 345  1  1.1000 0.9000;67  1  0  0  0  0  1  1.0431 -2.1600 345  1  1.1000 0.9000;68  1  0  0  0  0  1  1.0495 -2.9600 345  1  1.1000 0.9000;69  1  0  0  0  0  1  1.0495 -2.9200 345  1  1.1000 0.9000;70  3  0  0  0  0  1  1.0328 0  345  1  1.1000 0.9000;71  1  0  0  0  0  1  1.0077 -6.8500 34.5000 1  1.1000 0.9000;72  1  0  0  0  0  1  1.0459 -5.1700 34.5000 1  1.1000 0.9000;73  1  18.1200 9.3300 0  0  1  0.9784 -10.0100 34.5000 1  1.1000 0.9000;74  1  0  0  0  0  1  1  -7.0100 34.5000 1  1.1000 0.9000;75  1  0  0  0  0  1  1  -7.0100 34.5000 1  1.1000 0.9000;76  1  0  0  0  0  1  1  -4.2000 34.5000 1  1.1000 0.9000;77  1  0  0  0  0  1  1.0140 -6.2600 34.5000 1  1.1000 0.9000;
	78  1  0  0  0  0  1  1.0250 -5.3700 34.5000 1  1.1000 0.9000;
	79  1  0  0  0  0  1  1.0495 -2.2400 345  1  1.1000 0.9000;
	];
%% generator data
%	bus	Pg	Qg	Qmax	Qmin	Vg	mBase	status	Pmax	Pmin	Pc1	Pc2	Qc1min	Qc1max	Qc2min	Qc2max	ramp_agc	ramp_10	ramp_30	ramp_q	apf
mpc.gen = [
	70  238.9300 -81.7000 280  -200  1.0357 100  1  999  0  0  0  0  0  0  0  0  0  0  0  0 ;
	28  3.7500 -6  6  -6  0.9950 100  1  42.6000 0  0  0  0  0  0  0  0  0  0  0  0 ;
	32  2.3500 3  3  0  1.0500 100  1  3.9400 0  0  0  0  0  0  0  0  0  0  0  0 ;
	38  6.2200 5  5  0  1.0500 100  1  10.2000 0  0  0  0  0  0  0  0  0  0  0  0 ;
	40  40.0500 6  6  -6  1.0250 100  1  40.3000 0  0  0  0  0  0  0  0  0  0  0  0 ;
	45  3.7300 5.3800 8  0  1.0500 100  1  7  0  0  0  0  0  0  0  0  0  0  0  0 ;
	50  0.8400 9.2600 14.2400 5.1300 1.0106 100  1  1.0300 0  0  0  0  0  0  0  0  0  0  0  0 ;
	52  508.0500 -61.5400 282.3100 -61.5400 1  100  1  560  0  0  0  0  0  0  0  0  0  0  0  0 ;
	53  509.3500 -51.3000 299  -54.6900 1  100  1  574.6000 0  0  0  0  0  0  0  0  0  0  0  0 ;
	];

%% branch data
%	fbus	tbus	r	x	b	rateA	rateB	rateC	ratio	angle	status	angmin	angmax
% zero line charging susceptible
mpc.branch = [64  68  0.0007 0.0131 0  2390  2390  2390  1  0  1  -360  360 ;
	64  69  0.0004 0.0059 0  2390  2390  2390  1  0  1  -360  360 ;
	64  4  0.0003 0.0063 0  1918  2115  2390  1  0  1  -360  360 ;
	65  1  0.0001 0.0004 0  687  747  747  1  0  1  -360  360 ;
	53  65  0.0004 0.0214 0  720  894  1008  0.9800 0  1  -360  360 ;
	66  67  0.0002 0.0025 0  777  837  837  1  0  1  -360  360 ;
	66  18  0  0.0310 0  506  587  671  0.9800 0  1  -360  360 ;
	52  66  0.0004 0.0214 0  720  894  1008  0.9800 0  1  -360  360 ;
	67  68  0.0001 0.0022 0  1918  2121  2691  1  0  1  -360  360 ;
	67  1  0.0001 0.0022 0  1976  2384  2895  1  0  1  -360  360 ;
	67  79  0.0001 0.0019 0  1919  2121  2692  1  0  1  -360  360 ;
	68  69  0.0004 0.0080 0  2390  2390  2390  1  0  1  -360  360 ;
	68  2  0.0001 0.0025 0  1685  2121  2387  1  0  1  -360  360 ;
	68  3  0.0001 0.0025 0  1918  2121  2579  1  0  1  -360  360 ;
	68  14  0  0.0273 0  451  546  619  0.9800 0  1  -360  360 ;
	68  14  0  0.0273 0  451  546  619  1.1000 0  1  -360  360 ;
	69  17  0  0.0340 0  562  652  746  1.0600 0  1  -360  360 ;
	70  4  0.0010 0.0166 0  1786  1793  1793  1  0  1  -360  360 ;
	1  19  0  0.0291 0  501  607  688  0.9500 0  1  -360  360 ;
	4  16  0  0.0354 0  562  652  707  1.0200 0  1  -360  360 ;
	5  15  0.0056 0.0310 0  313  343  357  1  0  1  -360  360 ;
	5  17  0.0016 0.0090 0  313  343  357  1  0  1  -360  360 ;
	6  40  0.0230 0.0510 0  157  171  178  1  0  1  -360  360 ;
	6  51  0.0126 0.0417 0  157  171  178  1  0  1  -360  360 ;
	6  54  0.0020 0.0100 0  157  171  178  1  0  1  -360  360 ;
	7  9  0.0012 0.0089 0  507  531  556  1  0  1  -360  360 ;
	7  13  0.0017 0.0104 0  313  343  357  1  0  1  -360  360 ;
	7  19  0.0041 0.0251 0  313  343  357  1  0  1  -360  360 ;
	7  24  0  0.0394 0  231  287  316  1  0  1  -360  360 ;
	7  61  0.0040 0.0260 0  251  276  287  1  0  1  -360  360 ;
	8  18  0.0024 0.0206 0  420  460  479  1  0  1  -360  360 ;
	8  60  0.0010 0.0084 0  262  300  317  1  0  1  -360  360 ;
	9  46  0.0012 0.0069 0  507  531  556  1  0  1  -360  360 ;
	10  14  0.0008 0.0075 0  208  256  294  1  0  1  -360  360 ;
	10  28  0  0.0380 0  208  256  294  1.0100 0  1  -360  360 ;
	11  12  0.0011 0.0078 0  313  343  357  1  0  1  -360  360 ;
	11  18  0.0025 0.0142 0  310  339  352  1  0  1  -360  360 ;
	11  19  0.0023 0.0134 0  313  343  357  1  0  1  -360  360 ;
	31  11  0  0.1317 0  104  144  166  1  0  1  -360  360 ;
	79  11  0  0.0340 0  562  652  746  1.2500 0  1  -360  360 ;
	12  19  0.0012 0.0092 0  313  343  357  1  0  1  -360  360 ;
	13  59  0.0021 0.0122 0  313  343  357  1  0  1  -360  360 ;
	14  46  0.0012 0.0069 0  507  531  556  1  0  1  -360  360 ;
	14  63  0.0063 0.0229 0  264  300  316  1  0  1  -360  360 ;
	15  16  0.0007 0.0028 0  562  652  746  1  0  1  -360  360 ;
	15  40  0  0.0655 0  236  312  354  0.9500 0  1  -360  360 ;
	40  15  0  0.0542 0  214  250  281  1  0  1  -360  360 ;
	15  76  0  0.3976 0  47.8000 60  72.2000 1.0100 0  1  -360  360 ;17  44  0  0.0671 0  213  251  281  0.9900 0  1  -360  360 ;17  44  0  0.0573 0  210  247  278  1.0300 0  1  -360  360 ;17  63  0.0054 0.0156 0  293  333  351  1  0  1  -360  360 ;19  59  0.0002 0.0122 0  313  343  357  1  0  1  -360  360 ;20  47  0  0.0655 0  236  312  354  1  0  1  -360  360 ;20  60  0.0004 0.0032 0  236  312  352  1  0  1  -360  360 ;21  35  0.0037 0.0194 0  124  136  141  1  0  1  -360  360 ;21  42  0.0037 0.0194 0  124  136  141  1  0  1  -360  360 ;22  33  0.0429 0.0715 0  48  54  60  1  0  1  -360  360 ;23  30  0.0026 0.0100 0  154  169  176  1  0  1  -360  360 ;23  37  0.0044 0.0255 0  157  171  178  1  0  1  -360  360 ;24  34  0.0062 0.0359 0  160  174  181  1  0  1  -360  360 ;24  71  0  0.3605 0  26  30  36  1  0  1  -360  360 ;25  31  0.0076 0.0330 0  126  138  143  1  0  1  -360  360 ;25  47  0.0258 0.1512 0  154  169  176  1  0  1  -360  360 ;25  56  0.0017 0.0066 0  5.7000 6.7000 7.8000 1  0  1  -360  360 ;26  32  0.0655 0.1890 0  73  84  93  1  0  1  -360  360 ;26  40  0.0595 0.1720 0  73  84  93  1  0  1  -360  360 ;26  73  0  0.3762 0  47.8000 60  72.2000 1  0  1  -360  360 ;27  33  0.0040 0.0220 0  157  171  178  1  0  1  -360  360 ;27  41  0.0163 0.0947 0  201  254  286  1  0  1  -360  360 ;27  74  0  0.7100 0  24  29  37  1  0  1  -360  360 ;27  75  0  0.7458 0  24  29  37  1  0  1  -360  360 ;28  37  0.0183 0.1085 0  157  171  178  1  0  1  -360  360 ;28  41  0.0059 0.0332 0  201  254  286  1  0  1  -360  360 ;29  43  0.0095 0.0545 0  157  171  178  1  0  1  -360  360 ;29  48  0.0080 0.0469 0  157  171  178  1  0  1  -360  360 ;30  43  0.0200 0.0442 0  114  122  124  1  0  1  -360  360 ;32  38  0.0309 0.0896 0  73  84  93  1  0  1  -360  360 ;32  40  0.1250 0.3610 0  73  84  93  1  0  1  -360  360 ;32  45  0.0630 0.1597 0  36  40  44  1  0  1  -360  360 ;33  44  0.0056 0.0320 0  282  309  321  1  0  1  -360  360 ;34  55  0.0039 0.0241 0  157  171  178  1  0  1  -360  360 ;35  47  0.0076 0.0398 0  154  169  176  1  0  1  -360  360 ;36  50  0  0.5833 0  32  37  44  1  0  1  -360  360 ;36  55  0  0.0001 0  73  84  93  1  0  1  -360  360 ;37  49  0.0273 0.0686 0  90  99  102  1  0  1  -360  360 ;37  49  0.0273 0.0686 0  90  90  102  1  0  1  -360  360 ;72  38  0  0.3976 0  42  52  58  1  0  1  -360  360 ;39  40  0.0280 0.0831 0  92  100  104  1  0  1  -360  360 ;39  44  0.0319 0.1114 0  92  100  104  1  0  1  -360  360 ;40  51  0.0246 0.0691 0  157  171  178  1  0  1  -360  360 ;40  58  0.0513 0.1140 0  124  130  136  1  0  1  -360  360 ;40  58  0.0513 0.1140 0  124  130  136  1  0  1  -360  360 ;40  62  0.0300 0.0970 0  92  100  104  1  0  1  -360  360 ;63  43  0  0.0591 0  214  250  281  1  0  1  -360  360 ;44  48  0.0114 0.0660 0  157  171  178  1  0  1  -360  360 ;44  62  0.0300 0.0973 0  92  100  104  1  0  1  -360  360 ;71  50  0.0934 0.2538 0  37  42  47  1  0  1  -360  360 ;54  57  0  0.0001 0  0  0  0  1  0  1  -360  360 ;57  77  0  0.3238 0  42  52  60  1  0  1  -360  360 ;
	78  58  0  0.3614 0  46  54  64  1  0  1  -360  360 ;
	];
%%-----  OPF Data  -----%%
%% generator cost data
%	1	startup	shutdown	n	x1	y1	...	xn	yn
%	2	startup	shutdown	n	c(n-1)	...	c0
mpc.gencost = [
 	2	0	0	0	0	0	0;
 	2	0	0	0	0	0	0;
 	2	0	0	0	0	0	0;
 	2	0	0	0	0	0	0;
 	2	0	0	0	0	0	0;
 	2	0	0	0	0	0	0;
 	2	0	0	0	0	0	0;
 	2	0	0	0	0	0	0;
 	2	0	0	0	0	0	0;
];
